data/Essential - Essential sourcebus_22000.50-3185-substation_site133534_856/Lines.dss
New Line.cable2079803_6746_6647 Units=km Length=0.027078000000000005 bus1=6647.1.2.3 bus2=6746.1.2.3 switch=n enabled=y phases=3 Linecode=3P_OH_Code0
New Line.cable2130159_7255_8474 Units=km Length=0.060474 bus1=8474.1.2.3 bus2=7255.1.2.3 switch=n enabled=y phases=3 Linecode=3P_OH_Code0
New Line.cable2130170_7236_8758 Units=km Length=0.045164 bus1=8758.1.2.3 bus2=7236.1.2.3 switch=n enabled=y phases=3 Linecode=3P_OH_Code0
New Line.cable2130172_8892_7304 Units=km Length=0.056756 bus1=7304.1.2.3 bus2=8892.1.2.3 switch=y enabled=n phases=3 Linecode=3P_OH_Code1
New Line.cable2130173_7841_7456 Units=km Length=0.052944 bus1=7456.1.2.3 bus2=7841.1.2.3 switch=n enabled=y phases=3 Linecode=3P_OH_Code0
New Line.cable2130174tocable3258947_7109_7443 Units=km Length=0.065231 bus1=7443.1.2.3 bus2=7109.1.2.3 switch=n enabled=y phases=3 Linecode=3P_OH_Code0
New Line.cable2130175_7443_9008 Units=km Length=0.04907700000000001 bus1=9008.1.2.3 bus2=7443.1.2.3 switch=n enabled=y phases=3 Linecode=3P_OH_Code0
New Line.cable2130176_7526_7117 Units=km Length=0.041684 bus1=7117.1.2.3 bus2=7526.1.2.3 switch=n enabled=y phases=3 Linecode=3P_OH_Code0
New Line.cable2130177_7507_8289 Units=km Length=0.041321 bus1=8289.1.2.3 bus2=7507.1.2.3 switch=n enabled=y phases=3 Linecode=3P_OH_Code0
New Line.cable2130178_7438_7523 Units=km Length=0.060496 bus1=7523.1.2.3 bus2=7438.1.2.3 switch=n enabled=y phases=3 Linecode=3P_OH_Code0
New Line.cable2130179_7523_7500 Units=km Length=0.112539 bus1=7500.1.2.3 bus2=7523.1.2.3 switch=n enabled=y phases=3 Linecode=3P_OH_Code0
New Line.cable2130310_7500_7489 Units=km Length=0.051521000000000004 bus1=7489.1.2.3 bus2=7500.1.2.3 switch=n enabled=y phases=3 Linecode=3P_OH_Code0
New Line.cable2130313_7491_7532 Units=km Length=0.03817 bus1=7532.1.2.3 bus2=7491.1.2.3 switch=n enabled=y phases=3 Linecode=3P_OH_Code0
New Line.cable2130314_7530_7174 Units=km Length=0.035664 bus1=7174.1.2.3 bus2=7530.1.2.3 switch=n enabled=y phases=3 Linecode=3P_OH_Code0
New Line.cable2130315_6647_8239 Units=km Length=0.03809 bus1=8239.1.2.3 bus2=6647.1.2.3 switch=n enabled=y phases=3 Linecode=3P_OH_Code0
New Line.cable2130316_6655_6746 Units=km Length=0.027103 bus1=6746.1.2.3 bus2=6655.1.2.3 switch=n enabled=y phases=3 Linecode=3P_OH_Code0
New Line.cable2130317_7016_6629 Units=km Length=0.038623 bus1=6629.1.2.3 bus2=7016.1.2.3 switch=n enabled=y phases=3 Linecode=3P_OH_Code0
New Line.cable2130318_8364_6617 Units=km Length=0.044137 bus1=6617.1.2.3 bus2=8364.1.2.3 switch=n enabled=y phases=3 Linecode=3P_OH_Code0
New Line.cable2130319_6709_7179 Units=km Length=0.046608 bus1=7179.1.2.3 bus2=6709.1.2.3 switch=n enabled=y phases=3 Linecode=3P_OH_Code0
New Line.cable2130322_8895_7179 Units=km Length=0.047639 bus1=7179.1.2.3 bus2=8895.1.2.3 switch=n enabled=y phases=3 Linecode=3P_OH_Code0
New Line.cable2130323_7860_6657 Units=km Length=0.062797 bus1=6657.1.2.3 bus2=7860.1.2.3 switch=n enabled=y phases=3 Linecode=3P_OH_Code0
New Line.cable2130324_6758_9003 Units=km Length=0.077529 bus1=9003.1.2.3 bus2=6758.1.2.3 switch=n enabled=y phases=3 Linecode=3P_OH_Code0
New Line.cable2130325tocable3836067_7739_7180 Units=km Length=0.173367 bus1=7180.1.2.3 bus2=7739.1.2.3 switch=n enabled=y phases=3 Linecode=3P_OH_Code0
New Line.cable2231093_8311_7255 Units=km Length=0.06077500000000001 bus1=7255.1.2.3 bus2=8311.1.2.3 switch=n enabled=y phases=3 Linecode=3P_OH_Code0
New Line.cable2231094_8909_7255 Units=km Length=0.053934 bus1=7255.1.2.3 bus2=8909.1.2.3 switch=n enabled=y phases=3 Linecode=3P_OH_Code0
New Line.cable2231095tocable3837067_8381_8289 Units=km Length=0.17174900000000004 bus1=8289.1.2.3 bus2=8381.1.2.3 switch=n enabled=y phases=3 Linecode=3P_OH_Code0
New Line.cable2231096_8289_7100 Units=km Length=0.03828100000000001 bus1=7100.1.2.3 bus2=8289.1.2.3 switch=n enabled=y phases=3 Linecode=3P_OH_Code0
New Line.cable2231097tocable3836061_8670_7523 Units=km Length=0.168017 bus1=7523.1.2.3 bus2=8670.1.2.3 switch=n enabled=y phases=3 Linecode=3P_OH_Code0
New Line.cable2336867_8395_8392 Units=km Length=0.025657 bus1=8392.1.2.3 bus2=8395.1.2.3 switch=n enabled=y phases=3 Linecode=3P_OH_Code0
New Line.cable2336868_6696_8392 Units=km Length=0.032106 bus1=8392.1.2.3 bus2=6696.1.2.3 switch=n enabled=y phases=3 Linecode=3P_OH_Code0
New Line.cable2336869_8882_7010 Units=km Length=0.041774 bus1=7010.1.2.3 bus2=8882.1.2.3 switch=n enabled=y phases=3 Linecode=3P_OH_Code0
New Line.cable2338552_8440_7224 Units=km Length=0.045295 bus1=7224.1.2.3 bus2=8440.1.2.3 switch=n enabled=y phases=3 Linecode=3P_OH_Code0
New Line.cable2338582tocable3390937_7389_8493 Units=km Length=0.241257 bus1=8493.1.2.3 bus2=7389.1.2.3 switch=n enabled=y phases=3 Linecode=3P_OH_Code0
New Line.cable2338584tocable3836512_8328_7300 Units=km Length=0.066754 bus1=7300.1.2.3 bus2=8328.1.2.3 switch=n enabled=y phases=3 Linecode=3P_OH_Code0
New Line.cable2338585_7300_7428 Units=km Length=0.048562 bus1=7428.1.2.3 bus2=7300.1.2.3 switch=n enabled=y phases=3 Linecode=3P_OH_Code0
New Line.cable2338586_8843_6746 Units=km Length=0.051201 bus1=6746.1.2.3 bus2=8843.1.2.3 switch=n enabled=y phases=3 Linecode=3P_OH_Code0
New Line.cable2671701_8201_7443 Units=km Length=0.06043200000000001 bus1=7443.1.2.3 bus2=8201.1.2.3 switch=n enabled=y phases=3 Linecode=3P_OH_Code0
New Line.cable2972593_9009_7389 Units=km Length=0.020738 bus1=7389.1.2.3 bus2=9009.1.2.3 switch=n enabled=y phases=3 Linecode=3P_OH_Code0
New Line.cable322059_8390_8389 Units=km Length=0.101994 bus1=8389.1.2.3 bus2=8390.1.2.3 switch=n enabled=y phases=3 Linecode=3P_OH_Code0
New Line.cable322157_7224_7389 Units=km Length=0.037937 bus1=7389.1.2.3 bus2=7224.1.2.3 switch=n enabled=y phases=3 Linecode=3P_OH_Code0
New Line.cable323145_6657_7854 Units=km Length=0.024338 bus1=7854.1.2.3 bus2=6657.1.2.3 switch=n enabled=y phases=3 Linecode=3P_OH_Code0
New Line.cable3231804tocable3836478_7025_8471 Units=km Length=0.035186 bus1=8471.1.2.3 bus2=7025.1.2.3 switch=n enabled=y phases=3 Linecode=3P_OH_Code0
New Line.cable3231805_7456_8471 Units=km Length=0.051156 bus1=8471.1.2.3 bus2=7456.1.2.3 switch=n enabled=y phases=3 Linecode=3P_OH_Code0
New Line.cable3231806tocable3836096_8215_8311 Units=km Length=0.040579 bus1=8311.1.2.3 bus2=8215.1.2.3 switch=n enabled=y phases=3 Linecode=3P_OH_Code0
New Line.cable3231807tocable3836095_7901_8311 Units=km Length=0.04438 bus1=8311.1.2.3 bus2=7901.1.2.3 switch=n enabled=y phases=3 Linecode=3P_OH_Code0
New Line.cable3231808tocable3836097_7495_8909 Units=km Length=0.038718 bus1=8909.1.2.3 bus2=7495.1.2.3 switch=n enabled=y phases=3 Linecode=3P_OH_Code0
New Line.cable3231809_8928_8909 Units=km Length=0.049875 bus1=8909.1.2.3 bus2=8928.1.2.3 switch=n enabled=y phases=3 Linecode=3P_OH_Code0
New Line.cable3232070tocable3836098_7455_8928 Units=km Length=0.036145 bus1=8928.1.2.3 bus2=7455.1.2.3 switch=n enabled=y phases=3 Linecode=3P_OH_Code0
New Line.cable3232071tocable3836091_7416_8852 Units=km Length=0.042514 bus1=8852.1.2.3 bus2=7416.1.2.3 switch=n enabled=y phases=3 Linecode=3P_OH_Code0
New Line.cable3232072_8886_7540 Units=km Length=0.028536 bus1=7540.1.2.3 bus2=8886.1.2.3 switch=n enabled=y phases=3 Linecode=3P_OH_Code0
New Line.cable3232073tocable3836370_7363_8542 Units=km Length=0.05826100000000001 bus1=8542.1.2.3 bus2=7363.1.2.3 switch=n enabled=y phases=3 Linecode=3P_OH_Code0
New Line.cable3232074tocable3836371_6851_7532 Units=km Length=0.040298 bus1=7532.1.2.3 bus2=6851.1.2.3 switch=n enabled=y phases=3 Linecode=3P_OH_Code0
New Line.cable3232075tocable3836374_7054_7174 Units=km Length=0.053118 bus1=7174.1.2.3 bus2=7054.1.2.3 switch=n enabled=y phases=3 Linecode=3P_OH_Code0
New Line.cable3232076_8238_8239 Units=km Length=0.024459000000000005 bus1=8239.1.2.3 bus2=8238.1.2.3 switch=n enabled=y phases=3 Linecode=3P_OH_Code0
New Line.cable3232077_8239_7530 Units=km Length=0.03770500000000001 bus1=7530.1.2.3 bus2=8239.1.2.3 switch=n enabled=y phases=3 Linecode=3P_OH_Code0
New Line.cable3232078tocable3836376_8667_8238 Units=km Length=0.029897 bus1=8238.1.2.3 bus2=8667.1.2.3 switch=n enabled=y phases=3 Linecode=3P_OH_Code0
New Line.cable3232079_8257_8843 Units=km Length=0.025405 bus1=8843.1.2.3 bus2=8257.1.2.3 switch=n enabled=y phases=3 Linecode=3P_OH_Code0
New Line.cable3232240tocable4340639_7019_6655 Units=km Length=0.040752 bus1=6655.1.2.3 bus2=7019.1.2.3 switch=n enabled=y phases=3 Linecode=3P_OH_Code0
New Line.cable3232241_7167_7562 Units=km Length=0.023764 bus1=7562.1.2.3 bus2=7167.1.2.3 switch=n enabled=y phases=3 Linecode=3P_OH_Code0
New Line.cable3232242tocable3282181_7637_8473 Units=km Length=0.03716900000000001 bus1=8473.1.2.3 bus2=7637.1.2.3 switch=n enabled=y phases=3 Linecode=3P_OH_Code0
New Line.cable3232243tocable3836624_8362_7651 Units=km Length=0.037408 bus1=7651.1.2.3 bus2=8362.1.2.3 switch=n enabled=y phases=3 Linecode=3P_OH_Code0
New Line.cable3232244togeo_schematic_cable288468_7854_8014 Units=km Length=0.08890600000000001 bus1=8014.1.2.3 bus2=7854.1.2.3 switch=n enabled=y phases=3 Linecode=3P_OH_Code0
New Line.cable323331_7842_6706 Units=km Length=0.040375 bus1=6706.1.2.3 bus2=7842.1.2.3 switch=n enabled=y phases=3 Linecode=3P_OH_Code0
New Line.cable3233370_8852_7255 Units=km Length=0.083119 bus1=7255.1.2.3 bus2=8852.1.2.3 switch=n enabled=y phases=3 Linecode=3P_OH_Code0
New Line.cable3233371tocable4546695_7033_7202 Units=km Length=0.03983 bus1=7202.1.2.3 bus2=7033.1.2.3 switch=n enabled=y phases=3 Linecode=3P_OH_Code0
New Line.cable3233372_7202_6709 Units=km Length=0.054943 bus1=6709.1.2.3 bus2=7202.1.2.3 switch=n enabled=y phases=3 Linecode=3P_OH_Code0
New Line.cable3233373_6707_7202 Units=km Length=0.024926000000000004 bus1=7202.1.2.3 bus2=6707.1.2.3 switch=n enabled=y phases=3 Linecode=3P_OH_Code0
New Line.cable3233374_7208_8364 Units=km Length=0.029508 bus1=8364.1.2.3 bus2=7208.1.2.3 switch=n enabled=y phases=3 Linecode=3P_OH_Code0
New Line.cable3233376tocable3836264_6892_7860 Units=km Length=0.036242 bus1=7860.1.2.3 bus2=6892.1.2.3 switch=n enabled=y phases=3 Linecode=3P_OH_Code0
New Line.cable3233378tocable3259466_6665_8895 Units=km Length=0.09189 bus1=8895.1.2.3 bus2=6665.1.2.3 switch=n enabled=y phases=3 Linecode=3P_OH_Code0
New Line.cable324495_7540_8014 Units=km Length=0.050505 bus1=8014.1.2.3 bus2=7540.1.2.3 switch=n enabled=y phases=3 Linecode=3P_OH_Code0
New Line.cable3258945tocable3836069_7413_6758 Units=km Length=0.155921 bus1=6758.1.2.3 bus2=7413.1.2.3 switch=n enabled=y phases=3 Linecode=3P_OH_Code0
New Line.cable3258948_8471_7109 Units=km Length=0.042844 bus1=7109.1.2.3 bus2=8471.1.2.3 switch=n enabled=y phases=3 Linecode=3P_OH_Code0
New Line.cable3259460tocable3259464_7428_7304 Units=km Length=0.075233 bus1=7304.1.2.3 bus2=7428.1.2.3 switch=n enabled=y phases=3 Linecode=3P_OH_Code0
New Line.cable3259461_7439_7300 Units=km Length=0.012421 bus1=7300.1.2.3 bus2=7439.1.2.3 switch=n enabled=y phases=3 Linecode=3P_OH_Code0
New Line.cable3259462_7266_7439 Units=km Length=0.017604 bus1=7439.1.2.3 bus2=7266.1.2.3 switch=n enabled=y phases=3 Linecode=3P_OH_Code0
New Line.cable3259463tocable3836511_9016_7428 Units=km Length=0.0379 bus1=7428.1.2.3 bus2=9016.1.2.3 switch=n enabled=y phases=3 Linecode=3P_OH_Code0
New Line.cable3281323_8118_7208 Units=km Length=0.016703 bus1=7208.1.2.3 bus2=8118.1.2.3 switch=n enabled=y phases=3 Linecode=3P_OH_Code0
New Line.cable3281324_8794_7208 Units=km Length=0.013421 bus1=7208.1.2.3 bus2=8794.1.2.3 switch=n enabled=y phases=3 Linecode=3P_OH_Code0
New Line.cable3281326_6853_8257 Units=km Length=0.021927 bus1=8257.1.2.3 bus2=6853.1.2.3 switch=n enabled=y phases=3 Linecode=3P_OH_Code0
New Line.cable3281327_7879_8257 Units=km Length=0.012922 bus1=8257.1.2.3 bus2=7879.1.2.3 switch=n enabled=y phases=3 Linecode=3P_OH_Code0
New Line.cable3281328_7092_6648 Units=km Length=0.026044 bus1=6648.1.2.3 bus2=7092.1.2.3 switch=n enabled=y phases=3 Linecode=3P_OH_Code0
New Line.cable3282180_7138_8473 Units=km Length=0.013432 bus1=8473.1.2.3 bus2=7138.1.2.3 switch=n enabled=y phases=3 Linecode=3P_OH_Code0
New Line.cable3282186tocable3837060_8378_7491 Units=km Length=0.02888 bus1=7491.1.2.3 bus2=8378.1.2.3 switch=n enabled=y phases=3 Linecode=3P_OH_Code0
New Line.cable3282189_7489_9001 Units=km Length=0.046039 bus1=9001.1.2.3 bus2=7489.1.2.3 switch=n enabled=y phases=3 Linecode=3P_OH_Code0
New Line.cable3283067_8758_9005 Units=km Length=0.002 bus1=9005.1.2.3 bus2=8758.1.2.3 switch=n enabled=y phases=3 Linecode=3P_OH_Code0
New Line.cable333560_8389_8827 Units=km Length=0.052304 bus1=8827.1.2.3 bus2=8389.1.2.3 switch=n enabled=y phases=3 Linecode=3P_OH_Code0
New Line.cable333672_8493_8441 Units=km Length=0.05392 bus1=8441.1.2.3 bus2=8493.1.2.3 switch=n enabled=y phases=3 Linecode=3P_OH_Code0
New Line.cable333677_7436_7739 Units=km Length=0.03684500000000001 bus1=7739.1.2.3 bus2=7436.1.2.3 switch=n enabled=y phases=3 Linecode=3P_OH_Code0
New Line.cable334800tocable3836704_7013_8389 Units=km Length=0.073343 bus1=8389.1.2.3 bus2=7013.1.2.3 switch=n enabled=y phases=3 Linecode=3P_OH_Code0
New Line.cable334815_8544_8542 Units=km Length=0.112837 bus1=8542.1.2.3 bus2=8544.1.2.3 switch=n enabled=y phases=3 Linecode=3P_OH_Code0
New Line.cable334821tocable3836143_7100_7526 Units=km Length=0.08895100000000002 bus1=7526.1.2.3 bus2=7100.1.2.3 switch=n enabled=y phases=3 Linecode=3P_OH_Code0
New Line.cable335036tocable4546696_7315_8389 Units=km Length=0.13874900000000004 bus1=8389.1.2.3 bus2=7315.1.2.3 switch=n enabled=y phases=3 Linecode=3P_OH_Code0
New Line.cable335042_7518_8852 Units=km Length=0.080679 bus1=8852.1.2.3 bus2=7518.1.2.3 switch=n enabled=y phases=3 Linecode=3P_OH_Code0
New Line.cable335264_7450_8493 Units=km Length=0.068105 bus1=8493.1.2.3 bus2=7450.1.2.3 switch=n enabled=y phases=3 Linecode=3P_OH_Code0
New Line.cable335654_8542_7491 Units=km Length=0.039077 bus1=7491.1.2.3 bus2=8542.1.2.3 switch=n enabled=y phases=3 Linecode=3P_OH_Code0
New Line.cable335816_8886_8542 Units=km Length=0.046945 bus1=8542.1.2.3 bus2=8886.1.2.3 switch=y enabled=n phases=3 Linecode=3P_OH_Code1
New Line.cable335835tocable3258946_7659_7507 Units=km Length=0.076476 bus1=7507.1.2.3 bus2=7659.1.2.3 switch=n enabled=y phases=3 Linecode=3P_OH_Code0
New Line.cable335995_6629_8542 Units=km Length=0.035302 bus1=8542.1.2.3 bus2=6629.1.2.3 switch=n enabled=y phases=3 Linecode=3P_OH_Code0
New Line.cable338309tocable3836265_8674_7842 Units=km Length=0.139847 bus1=7842.1.2.3 bus2=8674.1.2.3 switch=n enabled=y phases=3 Linecode=3P_OH_Code0
New Line.cable350177tocable3282185_6745_7179 Units=km Length=0.070789 bus1=7179.1.2.3 bus2=6745.1.2.3 switch=n enabled=y phases=3 Linecode=3P_OH_Code0
New Line.cable3776999_8799_8390 Units=km Length=0.067669 bus1=8390.1.2.3 bus2=8799.1.2.3 switch=n enabled=y phases=3 Linecode=3P_OH_Code0
New Line.cable3777756_7356_7417 Units=km Length=0.010621 bus1=7417.1.2.3 bus2=7356.1.2.3 switch=n enabled=y phases=3 Linecode=3P_OH_Code0
New Line.cable3777929tocable3778620_8323_8390 Units=km Length=0.047602 bus1=8390.1.2.3 bus2=8323.1.2.3 switch=n enabled=y phases=3 Linecode=3P_OH_Code0
New Line.cable3778621_6700_6986 Units=km Length=0.041539 bus1=6986.1.2.3 bus2=6700.1.2.3 switch=n enabled=y phases=3 Linecode=3P_OH_Code0
New Line.cable3778622tocable3836823_8377_6699 Units=km Length=0.1544 bus1=6699.1.2.3 bus2=8377.1.2.3 switch=n enabled=y phases=3 Linecode=3P_OH_Code0
New Line.cable3778623_8392_7417 Units=km Length=0.046732 bus1=7417.1.2.3 bus2=8392.1.2.3 switch=n enabled=y phases=3 Linecode=3P_OH_Code0
New Line.cable3778624_7417_6699 Units=km Length=0.035 bus1=6699.1.2.3 bus2=7417.1.2.3 switch=n enabled=y phases=3 Linecode=3P_OH_Code0
New Line.cable3778625_6699_7774 Units=km Length=0.042512 bus1=7774.1.2.3 bus2=6699.1.2.3 switch=n enabled=y phases=3 Linecode=3P_OH_Code0
New Line.cable3778626_6648_6700 Units=km Length=0.093026 bus1=6700.1.2.3 bus2=6648.1.2.3 switch=n enabled=y phases=3 Linecode=3P_OH_Code0
New Line.cable3778627_7562_7651 Units=km Length=0.059707 bus1=7651.1.2.3 bus2=7562.1.2.3 switch=n enabled=y phases=3 Linecode=3P_OH_Code0
New Line.cable3778628_7651_6648 Units=km Length=0.026842 bus1=6648.1.2.3 bus2=7651.1.2.3 switch=n enabled=y phases=3 Linecode=3P_OH_Code0
New Line.cable3778629_8473_7562 Units=km Length=0.040293 bus1=7562.1.2.3 bus2=8473.1.2.3 switch=n enabled=y phases=3 Linecode=3P_OH_Code0
New Line.cable3778650_8884_8390 Units=km Length=0.040858 bus1=8390.1.2.3 bus2=8884.1.2.3 switch=n enabled=y phases=3 Linecode=3P_OH_Code0
New Line.cable3778651_6757_8373 Units=km Length=0.070294 bus1=8373.1.2.3 bus2=6757.1.2.3 switch=n enabled=y phases=3 Linecode=3P_OH_Code0
New Line.cable3835429_7056_7180 Units=km Length=0.04232 bus1=7180.1.2.3 bus2=7056.1.2.3 switch=n enabled=y phases=3 Linecode=3P_OH_Code0
New Line.cable3836010_7180_6758 Units=km Length=0.042293 bus1=6758.1.2.3 bus2=7180.1.2.3 switch=n enabled=y phases=3 Linecode=3P_OH_Code0
New Line.cable3836011_8873_7456 Units=km Length=0.0271 bus1=7456.1.2.3 bus2=8873.1.2.3 switch=n enabled=y phases=3 Linecode=3P_OH_Code0
New Line.cable3836012_8422_8471 Units=km Length=0.009001 bus1=8471.1.2.3 bus2=8422.1.2.3 switch=n enabled=y phases=3 Linecode=3P_OH_Code0
New Line.cable3836013_8359_7109 Units=km Length=0.016463 bus1=7109.1.2.3 bus2=8359.1.2.3 switch=n enabled=y phases=3 Linecode=3P_OH_Code0
New Line.cable3836016tocable3836015_8047_7526 Units=km Length=0.034917 bus1=7526.1.2.3 bus2=8047.1.2.3 switch=n enabled=y phases=3 Linecode=3P_OH_Code0
New Line.cable3836017tocable3836060_7213_7438 Units=km Length=0.059175 bus1=7438.1.2.3 bus2=7213.1.2.3 switch=n enabled=y phases=3 Linecode=3P_OH_Code0
New Line.cable3836018_8890_7438 Units=km Length=0.051023 bus1=7438.1.2.3 bus2=8890.1.2.3 switch=y enabled=n phases=3 Linecode=3P_OH_Code1
New Line.cable3836062_8300_7500 Units=km Length=0.011584000000000002 bus1=7500.1.2.3 bus2=8300.1.2.3 switch=n enabled=y phases=3 Linecode=3P_OH_Code0
New Line.cable3836063tocable3836064_8673_7489 Units=km Length=0.056278 bus1=7489.1.2.3 bus2=8673.1.2.3 switch=n enabled=y phases=3 Linecode=3P_OH_Code0
New Line.cable3836065_8360_7438 Units=km Length=0.045898 bus1=7438.1.2.3 bus2=8360.1.2.3 switch=n enabled=y phases=3 Linecode=3P_OH_Code0
New Line.cable3836066_7490_7180 Units=km Length=0.03329300000000001 bus1=7180.1.2.3 bus2=7490.1.2.3 switch=n enabled=y phases=3 Linecode=3P_OH_Code0
New Line.cable3836068_7420_7739 Units=km Length=0.050965 bus1=7739.1.2.3 bus2=7420.1.2.3 switch=n enabled=y phases=3 Linecode=3P_OH_Code0
New Line.cable3836099_7393_8311 Units=km Length=0.012598 bus1=8311.1.2.3 bus2=7393.1.2.3 switch=n enabled=y phases=3 Linecode=3P_OH_Code0
New Line.cable3836140_7870_8928 Units=km Length=0.015637 bus1=8928.1.2.3 bus2=7870.1.2.3 switch=n enabled=y phases=3 Linecode=3P_OH_Code0
New Line.cable3836141_9018_7526 Units=km Length=0.022533 bus1=7526.1.2.3 bus2=9018.1.2.3 switch=n enabled=y phases=3 Linecode=3P_OH_Code0
New Line.cable3836142_7026_7100 Units=km Length=0.027021 bus1=7100.1.2.3 bus2=7026.1.2.3 switch=n enabled=y phases=3 Linecode=3P_OH_Code0
New Line.cable3836144_7117_8201 Units=km Length=0.052627 bus1=8201.1.2.3 bus2=7117.1.2.3 switch=n enabled=y phases=3 Linecode=3P_OH_Code0
New Line.cable3836145_7408_7117 Units=km Length=0.034115 bus1=7117.1.2.3 bus2=7408.1.2.3 switch=n enabled=y phases=3 Linecode=3P_OH_Code0
New Line.cable3836146tocable3836014_7160_7117 Units=km Length=0.033059 bus1=7117.1.2.3 bus2=7160.1.2.3 switch=n enabled=y phases=3 Linecode=3P_OH_Code0
New Line.cable3836147tocable4233479_8291_8201 Units=km Length=0.044778 bus1=8201.1.2.3 bus2=8291.1.2.3 switch=n enabled=y phases=3 Linecode=3P_OH_Code0
New Line.cable3836148_7145_7236 Units=km Length=0.022090000000000002 bus1=7236.1.2.3 bus2=7145.1.2.3 switch=n enabled=y phases=3 Linecode=3P_OH_Code0
New Line.cable3836149_6643_7145 Units=km Length=0.018798 bus1=7145.1.2.3 bus2=6643.1.2.3 switch=n enabled=y phases=3 Linecode=3P_OH_Code0
New Line.cable3836150_7375_7145 Units=km Length=0.013801 bus1=7145.1.2.3 bus2=7375.1.2.3 switch=n enabled=y phases=3 Linecode=3P_OH_Code0
New Line.cable3836152tocable3836151_7589_8441 Units=km Length=0.04979700000000001 bus1=8441.1.2.3 bus2=7589.1.2.3 switch=n enabled=y phases=3 Linecode=3P_OH_Code0
New Line.cable3836153_8441_7236 Units=km Length=0.075604 bus1=7236.1.2.3 bus2=8441.1.2.3 switch=n enabled=y phases=3 Linecode=3P_OH_Code0
New Line.cable3836154_7502_8441 Units=km Length=0.015423000000000001 bus1=8441.1.2.3 bus2=7502.1.2.3 switch=n enabled=y phases=3 Linecode=3P_OH_Code0
New Line.cable3836155_7225_8474 Units=km Length=0.046935 bus1=8474.1.2.3 bus2=7225.1.2.3 switch=n enabled=y phases=3 Linecode=3P_OH_Code0
New Line.cable3836156_8474_8493 Units=km Length=0.053197 bus1=8493.1.2.3 bus2=8474.1.2.3 switch=n enabled=y phases=3 Linecode=3P_OH_Code0
New Line.cable3836157_7209_8481 Units=km Length=0.018575000000000005 bus1=8481.1.2.3 bus2=7209.1.2.3 switch=n enabled=y phases=3 Linecode=3P_OH_Code0
New Line.cable3836158_8481_8441 Units=km Length=0.022443 bus1=8441.1.2.3 bus2=8481.1.2.3 switch=n enabled=y phases=3 Linecode=3P_OH_Code0
New Line.cable3836159_7997_8481 Units=km Length=0.042415 bus1=8481.1.2.3 bus2=7997.1.2.3 switch=n enabled=y phases=3 Linecode=3P_OH_Code0
New Line.cable3836220_7412_7450 Units=km Length=0.04319 bus1=7450.1.2.3 bus2=7412.1.2.3 switch=n enabled=y phases=3 Linecode=3P_OH_Code0
New Line.cable3836237_7411_6706 Units=km Length=0.015216000000000002 bus1=6706.1.2.3 bus2=7411.1.2.3 switch=n enabled=y phases=3 Linecode=3P_OH_Code0
New Line.cable3836238_6706_7860 Units=km Length=0.050304 bus1=7860.1.2.3 bus2=6706.1.2.3 switch=n enabled=y phases=3 Linecode=3P_OH_Code0
New Line.cable3836239_8314_7842 Units=km Length=0.024445 bus1=7842.1.2.3 bus2=8314.1.2.3 switch=n enabled=y phases=3 Linecode=3P_OH_Code0
New Line.cable3836260_8825_7842 Units=km Length=0.009255 bus1=7842.1.2.3 bus2=8825.1.2.3 switch=n enabled=y phases=3 Linecode=3P_OH_Code0
New Line.cable3836261_7877_7860 Units=km Length=0.015357 bus1=7860.1.2.3 bus2=7877.1.2.3 switch=n enabled=y phases=3 Linecode=3P_OH_Code0
New Line.cable3836262_7023_6657 Units=km Length=0.008997 bus1=6657.1.2.3 bus2=7023.1.2.3 switch=n enabled=y phases=3 Linecode=3P_OH_Code0
New Line.cable3836263_6858_7860 Units=km Length=0.015719 bus1=7860.1.2.3 bus2=6858.1.2.3 switch=n enabled=y phases=3 Linecode=3P_OH_Code0
New Line.cable3836266_7660_7167 Units=km Length=0.040833 bus1=7167.1.2.3 bus2=7660.1.2.3 switch=n enabled=y phases=3 Linecode=3P_OH_Code0
New Line.cable3836267_8477_6665 Units=km Length=0.032103 bus1=6665.1.2.3 bus2=8477.1.2.3 switch=n enabled=y phases=3 Linecode=3P_OH_Code0
New Line.cable3836268_8225_6665 Units=km Length=0.011041 bus1=6665.1.2.3 bus2=8225.1.2.3 switch=n enabled=y phases=3 Linecode=3P_OH_Code0
New Line.cable3836269_8320_6709 Units=km Length=0.008705000000000001 bus1=6709.1.2.3 bus2=8320.1.2.3 switch=n enabled=y phases=3 Linecode=3P_OH_Code0
New Line.cable3836300_8321_7010 Units=km Length=0.013605 bus1=7010.1.2.3 bus2=8321.1.2.3 switch=n enabled=y phases=3 Linecode=3P_OH_Code0
New Line.cable3836301_7010_7202 Units=km Length=0.031252 bus1=7202.1.2.3 bus2=7010.1.2.3 switch=n enabled=y phases=3 Linecode=3P_OH_Code0
New Line.cable3836302_8214_8364 Units=km Length=0.014785000000000001 bus1=8364.1.2.3 bus2=8214.1.2.3 switch=n enabled=y phases=3 Linecode=3P_OH_Code0
New Line.cable3836303_8179_7208 Units=km Length=0.031022 bus1=7208.1.2.3 bus2=8179.1.2.3 switch=n enabled=y phases=3 Linecode=3P_OH_Code0
New Line.cable3836304_7392_7010 Units=km Length=0.03809 bus1=7010.1.2.3 bus2=7392.1.2.3 switch=n enabled=y phases=3 Linecode=3P_OH_Code0
New Line.cable3836305_8180_7016 Units=km Length=0.033324 bus1=7016.1.2.3 bus2=8180.1.2.3 switch=n enabled=y phases=3 Linecode=3P_OH_Code0
New Line.cable3836306_6617_7016 Units=km Length=0.04226300000000001 bus1=7016.1.2.3 bus2=6617.1.2.3 switch=n enabled=y phases=3 Linecode=3P_OH_Code0
New Line.cable3836307tocable3836308_8322_6629 Units=km Length=0.038946 bus1=6629.1.2.3 bus2=8322.1.2.3 switch=n enabled=y phases=3 Linecode=3P_OH_Code0
New Line.cable3836309_8383_7540 Units=km Length=0.026667 bus1=7540.1.2.3 bus2=8383.1.2.3 switch=n enabled=y phases=3 Linecode=3P_OH_Code0
New Line.cable3836372_7814_7174 Units=km Length=0.03317 bus1=7174.1.2.3 bus2=7814.1.2.3 switch=n enabled=y phases=3 Linecode=3P_OH_Code0
New Line.cable3836377_8956_8238 Units=km Length=0.009041 bus1=8238.1.2.3 bus2=8956.1.2.3 switch=n enabled=y phases=3 Linecode=3P_OH_Code0
New Line.cable3836378_7139_8298 Units=km Length=0.010263 bus1=8298.1.2.3 bus2=7139.1.2.3 switch=n enabled=y phases=3 Linecode=3P_OH_Code0
New Line.cable3836379_8591_8298 Units=km Length=0.019641 bus1=8298.1.2.3 bus2=8591.1.2.3 switch=n enabled=y phases=3 Linecode=3P_OH_Code0
New Line.cable3836450_8875_8305 Units=km Length=0.014073 bus1=8305.1.2.3 bus2=8875.1.2.3 switch=n enabled=y phases=3 Linecode=3P_OH_Code0
New Line.cable3836472tocable3836471_8152_7389 Units=km Length=0.042598 bus1=7389.1.2.3 bus2=8152.1.2.3 switch=n enabled=y phases=3 Linecode=3P_OH_Code0
New Line.cable3836474_7871_8192 Units=km Length=0.022977 bus1=8192.1.2.3 bus2=7871.1.2.3 switch=n enabled=y phases=3 Linecode=3P_OH_Code0
New Line.cable3836475_7212_8192 Units=km Length=0.021806 bus1=8192.1.2.3 bus2=7212.1.2.3 switch=n enabled=y phases=3 Linecode=3P_OH_Code0
New Line.cable3836476_8192_7224 Units=km Length=0.023343 bus1=7224.1.2.3 bus2=8192.1.2.3 switch=n enabled=y phases=3 Linecode=3P_OH_Code0
New Line.cable3836477_8235_8192 Units=km Length=0.009861000000000002 bus1=8192.1.2.3 bus2=8235.1.2.3 switch=n enabled=y phases=3 Linecode=3P_OH_Code0
New Line.cable3836479_7731_7507 Units=km Length=0.024133 bus1=7507.1.2.3 bus2=7731.1.2.3 switch=n enabled=y phases=3 Linecode=3P_OH_Code0
New Line.cable3836510_6976_7439 Units=km Length=0.013761 bus1=7439.1.2.3 bus2=6976.1.2.3 switch=n enabled=y phases=3 Linecode=3P_OH_Code0
New Line.cable3836513_8331_7428 Units=km Length=0.014553000000000002 bus1=7428.1.2.3 bus2=8331.1.2.3 switch=n enabled=y phases=3 Linecode=3P_OH_Code0
New Line.cable3836514_8334_7428 Units=km Length=0.011898000000000002 bus1=7428.1.2.3 bus2=8334.1.2.3 switch=n enabled=y phases=3 Linecode=3P_OH_Code0
New Line.cable3836515_8335_7428 Units=km Length=0.024728000000000003 bus1=7428.1.2.3 bus2=8335.1.2.3 switch=n enabled=y phases=3 Linecode=3P_OH_Code0
New Line.cable3836516_8324_7300 Units=km Length=0.012668 bus1=7300.1.2.3 bus2=8324.1.2.3 switch=n enabled=y phases=3 Linecode=3P_OH_Code0
New Line.cable3836517_8305_7841 Units=km Length=0.025656 bus1=7841.1.2.3 bus2=8305.1.2.3 switch=n enabled=y phases=3 Linecode=3P_OH_Code0
New Line.cable3836518_7304_7841 Units=km Length=0.044905 bus1=7841.1.2.3 bus2=7304.1.2.3 switch=n enabled=y phases=3 Linecode=3P_OH_Code0
New Line.cable3836519_8382_7389 Units=km Length=0.01317 bus1=7389.1.2.3 bus2=8382.1.2.3 switch=n enabled=y phases=3 Linecode=3P_OH_Code0
New Line.cable3836620_8121_7224 Units=km Length=0.012982000000000002 bus1=7224.1.2.3 bus2=8121.1.2.3 switch=n enabled=y phases=3 Linecode=3P_OH_Code0
New Line.cable3836621_7856_7224 Units=km Length=0.036344 bus1=7224.1.2.3 bus2=7856.1.2.3 switch=n enabled=y phases=3 Linecode=3P_OH_Code0
New Line.cable3836622_8536_8473 Units=km Length=0.031583 bus1=8473.1.2.3 bus2=8536.1.2.3 switch=n enabled=y phases=3 Linecode=3P_OH_Code0
New Line.cable3836623_8325_7562 Units=km Length=0.013586 bus1=7562.1.2.3 bus2=8325.1.2.3 switch=n enabled=y phases=3 Linecode=3P_OH_Code0
New Line.cable3836625_6777_7167 Units=km Length=0.013801 bus1=7167.1.2.3 bus2=6777.1.2.3 switch=n enabled=y phases=3 Linecode=3P_OH_Code0
New Line.cable3836626_7471_8824 Units=km Length=0.01512 bus1=8824.1.2.3 bus2=7471.1.2.3 switch=n enabled=y phases=3 Linecode=3P_OH_Code0
New Line.cable3836627_8824_8827 Units=km Length=0.022984 bus1=8827.1.2.3 bus2=8824.1.2.3 switch=n enabled=y phases=3 Linecode=3P_OH_Code0
New Line.cable3836628_8827_6655 Units=km Length=0.050438 bus1=6655.1.2.3 bus2=8827.1.2.3 switch=n enabled=y phases=3 Linecode=3P_OH_Code0
New Line.cable3836629_8565_8824 Units=km Length=0.027675 bus1=8824.1.2.3 bus2=8565.1.2.3 switch=n enabled=y phases=3 Linecode=3P_OH_Code0
New Line.cable3836700_8374_8799 Units=km Length=0.04502500000000001 bus1=8799.1.2.3 bus2=8374.1.2.3 switch=n enabled=y phases=3 Linecode=3P_OH_Code0
New Line.cable3836701_8893_8799 Units=km Length=0.058358 bus1=8799.1.2.3 bus2=8893.1.2.3 switch=n enabled=y phases=3 Linecode=3P_OH_Code0
New Line.cable3836702_8027_8389 Units=km Length=0.017464 bus1=8389.1.2.3 bus2=8027.1.2.3 switch=n enabled=y phases=3 Linecode=3P_OH_Code0
New Line.cable3836703_8348_8827 Units=km Length=0.015148 bus1=8827.1.2.3 bus2=8348.1.2.3 switch=n enabled=y phases=3 Linecode=3P_OH_Code0
New Line.cable3836705_6954_8390 Units=km Length=0.02942 bus1=8390.1.2.3 bus2=6954.1.2.3 switch=n enabled=y phases=3 Linecode=3P_OH_Code0
New Line.cable3836706_7652_7304 Units=km Length=0.03860500000000001 bus1=7304.1.2.3 bus2=7652.1.2.3 switch=n enabled=y phases=3 Linecode=3P_OH_Code0
New Line.cable3836707_8830_6757 Units=km Length=0.015615 bus1=6757.1.2.3 bus2=8830.1.2.3 switch=n enabled=y phases=3 Linecode=3P_OH_Code0
New Line.cable3836708_7035_8373 Units=km Length=0.011372 bus1=8373.1.2.3 bus2=7035.1.2.3 switch=n enabled=y phases=3 Linecode=3P_OH_Code0
New Line.cable3836709_8373_6700 Units=km Length=0.03264700000000001 bus1=6700.1.2.3 bus2=8373.1.2.3 switch=n enabled=y phases=3 Linecode=3P_OH_Code0
New Line.cable3836811_7414_8373 Units=km Length=0.029656 bus1=8373.1.2.3 bus2=7414.1.2.3 switch=n enabled=y phases=3 Linecode=3P_OH_Code0
New Line.cable3836812_7509_6757 Units=km Length=0.038386 bus1=6757.1.2.3 bus2=7509.1.2.3 switch=n enabled=y phases=3 Linecode=3P_OH_Code0
New Line.cable3836813_7017_6700 Units=km Length=0.020806 bus1=6700.1.2.3 bus2=7017.1.2.3 switch=n enabled=y phases=3 Linecode=3P_OH_Code0
New Line.cable3836814_8109_6700 Units=km Length=0.009081000000000002 bus1=6700.1.2.3 bus2=8109.1.2.3 switch=n enabled=y phases=3 Linecode=3P_OH_Code0
New Line.cable3836815_8384_6986 Units=km Length=0.02215 bus1=6986.1.2.3 bus2=8384.1.2.3 switch=n enabled=y phases=3 Linecode=3P_OH_Code0
New Line.cable3836816_6986_7774 Units=km Length=0.029908 bus1=7774.1.2.3 bus2=6986.1.2.3 switch=n enabled=y phases=3 Linecode=3P_OH_Code0
New Line.cable3836817_8755_6986 Units=km Length=0.021865 bus1=6986.1.2.3 bus2=8755.1.2.3 switch=n enabled=y phases=3 Linecode=3P_OH_Code0
New Line.cable3836820_7714_8395 Units=km Length=0.01563 bus1=8395.1.2.3 bus2=7714.1.2.3 switch=n enabled=y phases=3 Linecode=3P_OH_Code0
New Line.cable3836821_8176_8395 Units=km Length=0.01694 bus1=8395.1.2.3 bus2=8176.1.2.3 switch=n enabled=y phases=3 Linecode=3P_OH_Code0
New Line.cable3836822_7394_8392 Units=km Length=0.010965000000000003 bus1=8392.1.2.3 bus2=7394.1.2.3 switch=n enabled=y phases=3 Linecode=3P_OH_Code0
New Line.cable3836824_8208_8799 Units=km Length=0.034212 bus1=8799.1.2.3 bus2=8208.1.2.3 switch=n enabled=y phases=3 Linecode=3P_OH_Code0
New Line.cable3836825_8297_6647 Units=km Length=0.015563 bus1=6647.1.2.3 bus2=8297.1.2.3 switch=n enabled=y phases=3 Linecode=3P_OH_Code0
New Line.cable3836826_8435_8239 Units=km Length=0.008994 bus1=8239.1.2.3 bus2=8435.1.2.3 switch=n enabled=y phases=3 Linecode=3P_OH_Code0
New Line.cable3836827_7653_8239 Units=km Length=0.026736000000000003 bus1=8239.1.2.3 bus2=7653.1.2.3 switch=n enabled=y phases=3 Linecode=3P_OH_Code0
New Line.cable3836828_7369_7530 Units=km Length=0.015375 bus1=7530.1.2.3 bus2=7369.1.2.3 switch=n enabled=y phases=3 Linecode=3P_OH_Code0
New Line.cable3836829_7768_7532 Units=km Length=0.010279 bus1=7532.1.2.3 bus2=7768.1.2.3 switch=n enabled=y phases=3 Linecode=3P_OH_Code0
New Line.cable3837061_8380_6629 Units=km Length=0.009000000000000001 bus1=6629.1.2.3 bus2=8380.1.2.3 switch=n enabled=y phases=3 Linecode=3P_OH_Code0
New Line.cable3837063_8370_8544 Units=km Length=0.049417 bus1=8544.1.2.3 bus2=8370.1.2.3 switch=n enabled=y phases=3 Linecode=3P_OH_Code0
New Line.cable3837064_8371_7016 Units=km Length=0.017594 bus1=7016.1.2.3 bus2=8371.1.2.3 switch=n enabled=y phases=3 Linecode=3P_OH_Code0
New Line.cable3837065_8372_6617 Units=km Length=0.009218 bus1=6617.1.2.3 bus2=8372.1.2.3 switch=n enabled=y phases=3 Linecode=3P_OH_Code0
New Line.cable3837066_7311_8305 Units=km Length=0.013806 bus1=8305.1.2.3 bus2=7311.1.2.3 switch=n enabled=y phases=3 Linecode=3P_OH_Code0
New Line.cable3837370_8298_7304 Units=km Length=0.027087 bus1=7304.1.2.3 bus2=8298.1.2.3 switch=n enabled=y phases=3 Linecode=3P_OH_Code0
New Line.cable3941560_7387_8895 Units=km Length=0.254264 bus1=8895.1.2.3 bus2=7387.1.2.3 switch=n enabled=y phases=3 Linecode=3P_OH_Code0
New Line.cable4316667_7532_7174 Units=km Length=0.03944600000000001 bus1=7174.1.2.3 bus2=7532.1.2.3 switch=n enabled=y phases=3 Linecode=3P_OH_Code0
New Line.cable4340634_7787_8544 Units=km Length=0.045451 bus1=8544.1.2.3 bus2=7787.1.2.3 switch=n enabled=y phases=3 Linecode=3P_OH_Code0
New Line.cable4340637_6765_8440 Units=km Length=0.03438800000000001 bus1=8440.1.2.3 bus2=6765.1.2.3 switch=n enabled=y phases=3 Linecode=3P_OH_Code0
New Line.cable4340640_7273_8895 Units=km Length=0.016866 bus1=8895.1.2.3 bus2=7273.1.2.3 switch=n enabled=y phases=3 Linecode=3P_OH_Code0
New Line.cable4376121tocable4546698_7318_7450 Units=km Length=0.082596 bus1=7450.1.2.3 bus2=7318.1.2.3 switch=n enabled=y phases=3 Linecode=3P_OH_Code0
New Line.cable4546694_7851_6709 Units=km Length=0.008619 bus1=6709.1.2.3 bus2=7851.1.2.3 switch=n enabled=y phases=3 Linecode=3P_OH_Code0
New Line.geo_schematic_cable241072tocable3282187_9003_7527 Units=km Length=0.002 bus1=7527.1.2.3 bus2=9003.1.2.3 switch=y enabled=y phases=3 Linecode=3P_OH_Code1
New Line.geo_schematic_cable241076tocable3281586_9001_7527 Units=km Length=0.00201 bus1=7527.1.2.3 bus2=9001.1.2.3 switch=y enabled=y phases=3 Linecode=3P_OH_Code1
New Line.geo_schematic_cable241079tocable3283063_9005_8312 Units=km Length=0.002 bus1=8312.1.2.3 bus2=9005.1.2.3 switch=y enabled=y phases=3 Linecode=3P_OH_Code1
New Line.geo_schematic_cable241163tocable3283064_9008_8312 Units=km Length=0.002011 bus1=8312.1.2.3 bus2=9008.1.2.3 switch=y enabled=y phases=3 Linecode=3P_OH_Code1
New Line.geo_schematic_cable241164tocable3283068_6810_8758 Units=km Length=0.005884 bus1=8758.1.2.3 bus2=6810.1.2.3 switch=n enabled=y phases=3 Linecode=3P_OH_Code0
New Line.geo_schematic_cable430736_7350_7174 Units=km Length=0.001 bus1=7174.1.2.3 bus2=7350.1.2.3 switch=n enabled=y phases=3 Linecode=3P_OH_Code0
New Line.geo_schematic_cable430737_7524_7350 Units=km Length=0.001 bus1=7350.1.2.3 bus2=7524.1.2.3 switch=n enabled=y phases=3 Linecode=3P_OH_Code0
New Line.simulated11047212_121332_8888_6648 Units=km Length=0.001 bus1=6648.1.2.3 bus2=8888.1.2.3 switch=n enabled=y phases=3 Linecode=3P_OH_Code0
New Line.simulated231154638_133535_7174_7974 Units=km Length=0.001 bus1=7974.1.2.3 bus2=7174.1.2.3 switch=n enabled=y phases=3 Linecode=3P_OH_Code0
New Line.simulated36031310_121337_8890_7443 Units=km Length=0.001 bus1=7443.1.2.3 bus2=8890.1.2.3 switch=n enabled=y phases=3 Linecode=3P_OH_Code0
New Line.simulated42275017_121333_8882_8364 Units=km Length=0.001 bus1=8364.1.2.3 bus2=8882.1.2.3 switch=y enabled=n phases=3 Linecode=3P_OH_Code1
New Line.simulated42275049_121334_8884_8440 Units=km Length=0.001 bus1=8440.1.2.3 bus2=8884.1.2.3 switch=y enabled=n phases=3 Linecode=3P_OH_Code1
New Line.simulated42275079_121336_8893_8473 Units=km Length=0.001 bus1=8473.1.2.3 bus2=8893.1.2.3 switch=y enabled=n phases=3 Linecode=3P_OH_Code1
New Line.simulated84065561_133534_7179_7958 Units=km Length=0.001 bus1=7958.1.2.3 bus2=7179.1.2.3 switch=n enabled=y phases=3 Linecode=3P_OH_Code0
New Line.simulated84065679_139232_8014_7032 Units=km Length=0.001 bus1=7032.1.2.3 bus2=8014.1.2.3 switch=n enabled=y phases=3 Linecode=3P_OH_Code0
New Line.simulated84065782_133532_7774_7954 Units=km Length=0.001 bus1=7954.1.2.3 bus2=7774.1.2.3 switch=n enabled=y phases=3 Linecode=3P_OH_Code0
New Line.simulated84283511_259085_7527_7075 Units=km Length=0.001 bus1=7075.1.2.3 bus2=7527.1.2.3 switch=n enabled=y phases=3 Linecode=3P_OH_Code0
New Line.simulated85360865_133537_8312_7978 Units=km Length=0.001 bus1=7978.1.2.3 bus2=8312.1.2.3 switch=n enabled=y phases=3 Linecode=3P_OH_Code0
